data_image0
_chemical_formula_structural       Ba27HO81Y10Zr17
_chemical_formula_sum              "Ba27 H1 O81 Y10 Zr17"
_cell_length_a       12.576
_cell_length_b       12.576
_cell_length_c       12.576
_cell_angle_alpha    90
_cell_angle_beta     90
_cell_angle_gamma    90

_space_group_name_H-M_alt    "P 1"
_space_group_IT_number       1

loop_
  _space_group_symop_operation_xyz
  'x, y, z'

loop_
  _atom_site_type_symbol
  _atom_site_label
  _atom_site_symmetry_multiplicity
  _atom_site_fract_x
  _atom_site_fract_y
  _atom_site_fract_z
  _atom_site_occupancy
  Ba  Ba1       1.0  0.00000  0.00000  0.00000  1.0000
  Ba  Ba2       1.0  0.00000  0.00000  0.33333  1.0000
  Ba  Ba3       1.0  0.00000  0.00000  0.66667  1.0000
  Ba  Ba4       1.0  0.00000  0.33333  0.00000  1.0000
  Ba  Ba5       1.0  0.00000  0.33333  0.33333  1.0000
  Ba  Ba6       1.0  0.00000  0.33333  0.66667  1.0000
  Ba  Ba7       1.0  0.00000  0.66667  0.00000  1.0000
  Ba  Ba8       1.0  0.00000  0.66667  0.33333  1.0000
  Ba  Ba9       1.0  0.00000  0.66667  0.66667  1.0000
  Ba  Ba10      1.0  0.33333  0.00000  0.00000  1.0000
  Ba  Ba11      1.0  0.33333  0.00000  0.33333  1.0000
  Ba  Ba12      1.0  0.33333  0.00000  0.66667  1.0000
  Ba  Ba13      1.0  0.33333  0.33333  0.00000  1.0000
  Ba  Ba14      1.0  0.33333  0.33333  0.33333  1.0000
  Ba  Ba15      1.0  0.33333  0.33333  0.66667  1.0000
  Ba  Ba16      1.0  0.33333  0.66667  0.00000  1.0000
  Ba  Ba17      1.0  0.33333  0.66667  0.33333  1.0000
  Ba  Ba18      1.0  0.33333  0.66667  0.66667  1.0000
  Ba  Ba19      1.0  0.66667  0.00000  0.00000  1.0000
  Ba  Ba20      1.0  0.66667  0.00000  0.33333  1.0000
  Ba  Ba21      1.0  0.66667  0.00000  0.66667  1.0000
  Ba  Ba22      1.0  0.66667  0.33333  0.00000  1.0000
  Ba  Ba23      1.0  0.66667  0.33333  0.33333  1.0000
  Ba  Ba24      1.0  0.66667  0.33333  0.66667  1.0000
  Ba  Ba25      1.0  0.66667  0.66667  0.00000  1.0000
  Ba  Ba26      1.0  0.66667  0.66667  0.33333  1.0000
  Ba  Ba27      1.0  0.66667  0.66667  0.66667  1.0000
  H   H1        1.0  0.16667  0.00000  0.00000  1.0000
  O   O1        1.0  0.16667  0.16667  0.00000  1.0000
  O   O2        1.0  0.16667  0.00000  0.16667  1.0000
  O   O3        1.0  0.00000  0.16667  0.16667  1.0000
  O   O4        1.0  0.16667  0.16667  0.33333  1.0000
  O   O5        1.0  0.16667  0.00000  0.50000  1.0000
  O   O6        1.0  0.00000  0.16667  0.50000  1.0000
  O   O7        1.0  0.16667  0.16667  0.66667  1.0000
  O   O8        1.0  0.16667  0.00000  0.83333  1.0000
  O   O9        1.0  0.00000  0.16667  0.83333  1.0000
  O   O10       1.0  0.16667  0.50000  0.00000  1.0000
  O   O11       1.0  0.16667  0.33333  0.16667  1.0000
  O   O12       1.0  0.00000  0.50000  0.16667  1.0000
  O   O13       1.0  0.16667  0.50000  0.33333  1.0000
  O   O14       1.0  0.16667  0.33333  0.50000  1.0000
  O   O15       1.0  0.00000  0.50000  0.50000  1.0000
  O   O16       1.0  0.16667  0.50000  0.66667  1.0000
  O   O17       1.0  0.16667  0.33333  0.83333  1.0000
  O   O18       1.0  0.00000  0.50000  0.83333  1.0000
  O   O19       1.0  0.16667  0.83333  0.00000  1.0000
  O   O20       1.0  0.16667  0.66667  0.16667  1.0000
  O   O21       1.0  0.00000  0.83333  0.16667  1.0000
  O   O22       1.0  0.16667  0.83333  0.33333  1.0000
  O   O23       1.0  0.16667  0.66667  0.50000  1.0000
  O   O24       1.0  0.00000  0.83333  0.50000  1.0000
  O   O25       1.0  0.16667  0.83333  0.66667  1.0000
  O   O26       1.0  0.16667  0.66667  0.83333  1.0000
  O   O27       1.0  0.00000  0.83333  0.83333  1.0000
  O   O28       1.0  0.50000  0.16667  0.00000  1.0000
  O   O29       1.0  0.50000  0.00000  0.16667  1.0000
  O   O30       1.0  0.33333  0.16667  0.16667  1.0000
  O   O31       1.0  0.50000  0.16667  0.33333  1.0000
  O   O32       1.0  0.50000  0.00000  0.50000  1.0000
  O   O33       1.0  0.33333  0.16667  0.50000  1.0000
  O   O34       1.0  0.50000  0.16667  0.66667  1.0000
  O   O35       1.0  0.50000  0.00000  0.83333  1.0000
  O   O36       1.0  0.33333  0.16667  0.83333  1.0000
  O   O37       1.0  0.50000  0.50000  0.00000  1.0000
  O   O38       1.0  0.50000  0.33333  0.16667  1.0000
  O   O39       1.0  0.33333  0.50000  0.16667  1.0000
  O   O40       1.0  0.50000  0.50000  0.33333  1.0000
  O   O41       1.0  0.50000  0.33333  0.50000  1.0000
  O   O42       1.0  0.33333  0.50000  0.50000  1.0000
  O   O43       1.0  0.50000  0.50000  0.66667  1.0000
  O   O44       1.0  0.50000  0.33333  0.83333  1.0000
  O   O45       1.0  0.33333  0.50000  0.83333  1.0000
  O   O46       1.0  0.50000  0.83333  0.00000  1.0000
  O   O47       1.0  0.50000  0.66667  0.16667  1.0000
  O   O48       1.0  0.33333  0.83333  0.16667  1.0000
  O   O49       1.0  0.50000  0.83333  0.33333  1.0000
  O   O50       1.0  0.50000  0.66667  0.50000  1.0000
  O   O51       1.0  0.33333  0.83333  0.50000  1.0000
  O   O52       1.0  0.50000  0.83333  0.66667  1.0000
  O   O53       1.0  0.50000  0.66667  0.83333  1.0000
  O   O54       1.0  0.33333  0.83333  0.83333  1.0000
  O   O55       1.0  0.83333  0.16667  0.00000  1.0000
  O   O56       1.0  0.83333  0.00000  0.16667  1.0000
  O   O57       1.0  0.66667  0.16667  0.16667  1.0000
  O   O58       1.0  0.83333  0.16667  0.33333  1.0000
  O   O59       1.0  0.83333  0.00000  0.50000  1.0000
  O   O60       1.0  0.66667  0.16667  0.50000  1.0000
  O   O61       1.0  0.83333  0.16667  0.66667  1.0000
  O   O62       1.0  0.83333  0.00000  0.83333  1.0000
  O   O63       1.0  0.66667  0.16667  0.83333  1.0000
  O   O64       1.0  0.83333  0.50000  0.00000  1.0000
  O   O65       1.0  0.83333  0.33333  0.16667  1.0000
  O   O66       1.0  0.66667  0.50000  0.16667  1.0000
  O   O67       1.0  0.83333  0.50000  0.33333  1.0000
  O   O68       1.0  0.83333  0.33333  0.50000  1.0000
  O   O69       1.0  0.66667  0.50000  0.50000  1.0000
  O   O70       1.0  0.83333  0.50000  0.66667  1.0000
  O   O71       1.0  0.83333  0.33333  0.83333  1.0000
  O   O72       1.0  0.66667  0.50000  0.83333  1.0000
  O   O73       1.0  0.83333  0.83333  0.00000  1.0000
  O   O74       1.0  0.83333  0.66667  0.16667  1.0000
  O   O75       1.0  0.66667  0.83333  0.16667  1.0000
  O   O76       1.0  0.83333  0.83333  0.33333  1.0000
  O   O77       1.0  0.83333  0.66667  0.50000  1.0000
  O   O78       1.0  0.66667  0.83333  0.50000  1.0000
  O   O79       1.0  0.83333  0.83333  0.66667  1.0000
  O   O80       1.0  0.83333  0.66667  0.83333  1.0000
  O   O81       1.0  0.66667  0.83333  0.83333  1.0000
  Y   Y1        1.0  0.16667  0.83333  0.50000  1.0000
  Y   Y2        1.0  0.16667  0.83333  0.83333  1.0000
  Y   Y3        1.0  0.50000  0.50000  0.16667  1.0000
  Y   Y4        1.0  0.50000  0.50000  0.83333  1.0000
  Y   Y5        1.0  0.83333  0.16667  0.16667  1.0000
  Y   Y6        1.0  0.83333  0.16667  0.83333  1.0000
  Y   Y7        1.0  0.83333  0.50000  0.16667  1.0000
  Y   Y8        1.0  0.83333  0.50000  0.83333  1.0000
  Y   Y9        1.0  0.83333  0.83333  0.50000  1.0000
  Y   Y10       1.0  0.83333  0.83333  0.83333  1.0000
  Zr  Zr1       1.0  0.16667  0.16667  0.16667  1.0000
  Zr  Zr2       1.0  0.16667  0.16667  0.50000  1.0000
  Zr  Zr3       1.0  0.16667  0.16667  0.83333  1.0000
  Zr  Zr4       1.0  0.16667  0.50000  0.16667  1.0000
  Zr  Zr5       1.0  0.16667  0.50000  0.50000  1.0000
  Zr  Zr6       1.0  0.16667  0.50000  0.83333  1.0000
  Zr  Zr7       1.0  0.16667  0.83333  0.16667  1.0000
  Zr  Zr8       1.0  0.50000  0.16667  0.16667  1.0000
  Zr  Zr9       1.0  0.50000  0.16667  0.50000  1.0000
  Zr  Zr10      1.0  0.50000  0.16667  0.83333  1.0000
  Zr  Zr11      1.0  0.50000  0.50000  0.50000  1.0000
  Zr  Zr12      1.0  0.50000  0.83333  0.16667  1.0000
  Zr  Zr13      1.0  0.50000  0.83333  0.50000  1.0000
  Zr  Zr14      1.0  0.50000  0.83333  0.83333  1.0000
  Zr  Zr15      1.0  0.83333  0.16667  0.50000  1.0000
  Zr  Zr16      1.0  0.83333  0.50000  0.50000  1.0000
  Zr  Zr17      1.0  0.83333  0.83333  0.16667  1.0000
